<?xml version="1.0" encoding="UTF-8"?>
<routes>
  <vType id="HV" accel="2.0" decel="4.5" length="5" minGap="2.5" maxSpeed="33.33" carFollowModel="Krauss" tau="1.2" sigma="0.5"/>
  <vType id="CAV" accel="2.5" decel="4.5" length="5" minGap="1.0" maxSpeed="33.33" carFollowModel="Krauss" tau="0.6" sigma="0.1"/>
  <route id="r0" edges="e0 e1 e2 e3 e0 e1 e2 e3 e0 e1 e2 e3 e0 e1 e2 e3 e0 e1 e2 e3 e0 e1 e2 e3 e0 e1 e2 e3 e0 e1 e2 e3 e0 e1 e2 e3 e0 e1 e2 e3 e0 e1 e2 e3 e0 e1 e2 e3 e0 e1 e2 e3 e0 e1 e2 e3 e0 e1 e2 e3 e0 e1 e2 e3 e0 e1 e2 e3 e0 e1 e2 e3 e0 e1 e2 e3 e0 e1 e2 e3 e0 e1 e2 e3 e0 e1 e2 e3 e0 e1 e2 e3 e0 e1 e2 e3 e0 e1 e2 e3 e0 e1 e2 e3 e0 e1 e2 e3 e0 e1 e2 e3 e0 e1 e2 e3 e0 e1 e2 e3 e0 e1 e2 e3 e0 e1 e2 e3 e0 e1 e2 e3 e0 e1 e2 e3 e0 e1 e2 e3 e0 e1 e2 e3 e0 e1 e2 e3 e0 e1 e2 e3 e0 e1 e2 e3 e0 e1 e2 e3 e0 e1 e2 e3 e0 e1 e2 e3 e0 e1 e2 e3 e0 e1 e2 e3 e0 e1 e2 e3 e0 e1 e2 e3 e0 e1 e2 e3 e0 e1 e2 e3 e0 e1 e2 e3 e0 e1 e2 e3 e0 e1 e2 e3 e0 e1 e2 e3 e0 e1 e2 e3 e0 e1 e2 e3 e0 e1 e2 e3 e0 e1 e2 e3 e0 e1 e2 e3 e0 e1 e2 e3 e0 e1 e2 e3 e0 e1 e2 e3 e0 e1 e2 e3 e0 e1 e2 e3 e0 e1 e2 e3 e0 e1 e2 e3 e0 e1 e2 e3 e0 e1 e2 e3 e0 e1 e2 e3 e0 e1 e2 e3 e0 e1 e2 e3 e0 e1 e2 e3 e0 e1 e2 e3 e0 e1 e2 e3 e0 e1 e2 e3 e0 e1 e2 e3 e0 e1 e2 e3 e0 e1 e2 e3 e0 e1 e2 e3 e0 e1 e2 e3 e0 e1 e2 e3 e0 e1 e2 e3 e0 e1 e2 e3 e0 e1 e2 e3 e0 e1 e2 e3 e0 e1 e2 e3 e0 e1 e2 e3 e0 e1 e2 e3 e0 e1 e2 e3 e0 e1 e2 e3 e0 e1 e2 e3 e0 e1 e2 e3 e0 e1 e2 e3 e0 e1 e2 e3 e0 e1 e2 e3 e0 e1 e2 e3 e0 e1 e2 e3 e0 e1 e2 e3 e0 e1 e2 e3 e0 e1 e2 e3 e0 e1 e2 e3 e0 e1 e2 e3 e0 e1 e2 e3 e0 e1 e2 e3 e0 e1 e2 e3 e0 e1 e2 e3 e0 e1 e2 e3 e0 e1 e2 e3 e0 e1 e2 e3 e0 e1 e2 e3 e0 e1 e2 e3 e0 e1 e2 e3 e0 e1 e2 e3 e0 e1 e2 e3 e0 e1 e2 e3 e0 e1 e2 e3 e0 e1 e2 e3 e0 e1 e2 e3 e0 e1 e2 e3 e0 e1 e2 e3 e0 e1 e2 e3 e0 e1 e2 e3 e0 e1 e2 e3 e0 e1 e2 e3 e0 e1 e2 e3 e0 e1 e2 e3 e0 e1 e2 e3 e0 e1 e2 e3 e0 e1 e2 e3 e0 e1 e2 e3 e0 e1 e2 e3 e0 e1 e2 e3 e0 e1 e2 e3 e0 e1 e2 e3 e0 e1 e2 e3 e0 e1 e2 e3 e0 e1 e2 e3 e0 e1 e2 e3 e0 e1 e2 e3 e0 e1 e2 e3 e0 e1 e2 e3 e0 e1 e2 e3 e0 e1 e2 e3 e0 e1 e2 e3 e0 e1 e2 e3 e0 e1 e2 e3 e0 e1 e2 e3 e0 e1 e2 e3 e0 e1 e2 e3 e0 e1 e2 e3 e0 e1 e2 e3 e0 e1 e2 e3 e0 e1 e2 e3 e0 e1 e2 e3 e0 e1 e2 e3 e0 e1 e2 e3 e0 e1 e2 e3 e0 e1 e2 e3 e0 e1 e2 e3 e0 e1 e2 e3 e0 e1 e2 e3 e0 e1 e2 e3 e0 e1 e2 e3 e0 e1 e2 e3 e0 e1 e2 e3 e0 e1 e2 e3 e0 e1 e2 e3 e0 e1 e2 e3 e0 e1 e2 e3 e0 e1 e2 e3 e0 e1 e2 e3 e0 e1 e2 e3 e0 e1 e2 e3 e0 e1 e2 e3 e0 e1 e2 e3 e0 e1 e2 e3 e0 e1 e2 e3 e0 e1 e2 e3 e0 e1 e2 e3 e0 e1 e2 e3 e0 e1 e2 e3 e0 e1 e2 e3 e0 e1 e2 e3 e0 e1 e2 e3 e0 e1 e2 e3 e0 e1 e2 e3 e0 e1 e2 e3 e0 e1 e2 e3 e0 e1 e2 e3 e0 e1 e2 e3 e0 e1 e2 e3 e0 e1 e2 e3 e0 e1 e2 e3 e0 e1 e2 e3 e0 e1 e2 e3 e0 e1 e2 e3 e0 e1 e2 e3 e0 e1 e2 e3 e0 e1 e2 e3 e0 e1 e2 e3 e0 e1 e2 e3 e0 e1 e2 e3 e0 e1 e2 e3 e0 e1 e2 e3 e0 e1 e2 e3 e0 e1 e2 e3 e0 e1 e2 e3 e0 e1 e2 e3 e0 e1 e2 e3 e0 e1 e2 e3 e0 e1 e2 e3 e0 e1 e2 e3 e0 e1 e2 e3 e0 e1 e2 e3 e0 e1 e2 e3 e0 e1 e2 e3 e0 e1 e2 e3 e0 e1 e2 e3 e0 e1 e2 e3 e0 e1 e2 e3 e0 e1 e2 e3 e0 e1 e2 e3 e0 e1 e2 e3 e0 e1 e2 e3 e0 e1 e2 e3 e0 e1 e2 e3 e0 e1 e2 e3 e0 e1 e2 e3 e0 e1 e2 e3 e0 e1 e2 e3 e0 e1 e2 e3 e0 e1 e2 e3 e0 e1 e2 e3 e0 e1 e2 e3 e0 e1 e2 e3 e0 e1 e2 e3 e0 e1 e2 e3 e0 e1 e2 e3 e0 e1 e2 e3 e0 e1 e2 e3 e0 e1 e2 e3 e0 e1 e2 e3 e0 e1 e2 e3 e0 e1 e2 e3 e0 e1 e2 e3 e0 e1 e2 e3 e0 e1 e2 e3 e0 e1 e2 e3 e0 e1 e2 e3 e0 e1 e2 e3 e0 e1 e2 e3 e0 e1 e2 e3 e0 e1 e2 e3 e0 e1 e2 e3 e0 e1 e2 e3 e0 e1 e2 e3 e0 e1 e2 e3 e0 e1 e2 e3 e0 e1 e2 e3 e0 e1 e2 e3 e0 e1 e2 e3 e0 e1 e2 e3 e0 e1 e2 e3 e0 e1 e2 e3 e0 e1 e2 e3 e0 e1 e2 e3 e0 e1 e2 e3 e0 e1 e2 e3 e0 e1 e2 e3 e0 e1 e2 e3 e0 e1 e2 e3 e0 e1 e2 e3 e0 e1 e2 e3 e0 e1 e2 e3 e0 e1 e2 e3 e0 e1 e2 e3 e0 e1 e2 e3 e0 e1 e2 e3 e0 e1 e2 e3 e0 e1 e2 e3 e0 e1 e2 e3 e0 e1 e2 e3 e0 e1 e2 e3 e0 e1 e2 e3 e0 e1 e2 e3 e0 e1 e2 e3 e0 e1 e2 e3 e0 e1 e2 e3 e0 e1 e2 e3 e0 e1 e2 e3 e0 e1 e2 e3 e0 e1 e2 e3 e0 e1 e2 e3 e0 e1 e2 e3 e0 e1 e2 e3 e0 e1 e2 e3 e0 e1 e2 e3 e0 e1 e2 e3 e0 e1 e2 e3 e0 e1 e2 e3 e0 e1 e2 e3 e0 e1 e2 e3"/>
  <vehicle id="veh0" type="HV" route="r0" depart="0" departPos="0.00" departSpeed="max"/>
  <route id="r1" edges="e0 e1 e2 e3 e0 e1 e2 e3 e0 e1 e2 e3 e0 e1 e2 e3 e0 e1 e2 e3 e0 e1 e2 e3 e0 e1 e2 e3 e0 e1 e2 e3 e0 e1 e2 e3 e0 e1 e2 e3 e0 e1 e2 e3 e0 e1 e2 e3 e0 e1 e2 e3 e0 e1 e2 e3 e0 e1 e2 e3 e0 e1 e2 e3 e0 e1 e2 e3 e0 e1 e2 e3 e0 e1 e2 e3 e0 e1 e2 e3 e0 e1 e2 e3 e0 e1 e2 e3 e0 e1 e2 e3 e0 e1 e2 e3 e0 e1 e2 e3 e0 e1 e2 e3 e0 e1 e2 e3 e0 e1 e2 e3 e0 e1 e2 e3 e0 e1 e2 e3 e0 e1 e2 e3 e0 e1 e2 e3 e0 e1 e2 e3 e0 e1 e2 e3 e0 e1 e2 e3 e0 e1 e2 e3 e0 e1 e2 e3 e0 e1 e2 e3 e0 e1 e2 e3 e0 e1 e2 e3 e0 e1 e2 e3 e0 e1 e2 e3 e0 e1 e2 e3 e0 e1 e2 e3 e0 e1 e2 e3 e0 e1 e2 e3 e0 e1 e2 e3 e0 e1 e2 e3 e0 e1 e2 e3 e0 e1 e2 e3 e0 e1 e2 e3 e0 e1 e2 e3 e0 e1 e2 e3 e0 e1 e2 e3 e0 e1 e2 e3 e0 e1 e2 e3 e0 e1 e2 e3 e0 e1 e2 e3 e0 e1 e2 e3 e0 e1 e2 e3 e0 e1 e2 e3 e0 e1 e2 e3 e0 e1 e2 e3 e0 e1 e2 e3 e0 e1 e2 e3 e0 e1 e2 e3 e0 e1 e2 e3 e0 e1 e2 e3 e0 e1 e2 e3 e0 e1 e2 e3 e0 e1 e2 e3 e0 e1 e2 e3 e0 e1 e2 e3 e0 e1 e2 e3 e0 e1 e2 e3 e0 e1 e2 e3 e0 e1 e2 e3 e0 e1 e2 e3 e0 e1 e2 e3 e0 e1 e2 e3 e0 e1 e2 e3 e0 e1 e2 e3 e0 e1 e2 e3 e0 e1 e2 e3 e0 e1 e2 e3 e0 e1 e2 e3 e0 e1 e2 e3 e0 e1 e2 e3 e0 e1 e2 e3 e0 e1 e2 e3 e0 e1 e2 e3 e0 e1 e2 e3 e0 e1 e2 e3 e0 e1 e2 e3 e0 e1 e2 e3 e0 e1 e2 e3 e0 e1 e2 e3 e0 e1 e2 e3 e0 e1 e2 e3 e0 e1 e2 e3 e0 e1 e2 e3 e0 e1 e2 e3 e0 e1 e2 e3 e0 e1 e2 e3 e0 e1 e2 e3 e0 e1 e2 e3 e0 e1 e2 e3 e0 e1 e2 e3 e0 e1 e2 e3 e0 e1 e2 e3 e0 e1 e2 e3 e0 e1 e2 e3 e0 e1 e2 e3 e0 e1 e2 e3 e0 e1 e2 e3 e0 e1 e2 e3 e0 e1 e2 e3 e0 e1 e2 e3 e0 e1 e2 e3 e0 e1 e2 e3 e0 e1 e2 e3 e0 e1 e2 e3 e0 e1 e2 e3 e0 e1 e2 e3 e0 e1 e2 e3 e0 e1 e2 e3 e0 e1 e2 e3 e0 e1 e2 e3 e0 e1 e2 e3 e0 e1 e2 e3 e0 e1 e2 e3 e0 e1 e2 e3 e0 e1 e2 e3 e0 e1 e2 e3 e0 e1 e2 e3 e0 e1 e2 e3 e0 e1 e2 e3 e0 e1 e2 e3 e0 e1 e2 e3 e0 e1 e2 e3 e0 e1 e2 e3 e0 e1 e2 e3 e0 e1 e2 e3 e0 e1 e2 e3 e0 e1 e2 e3 e0 e1 e2 e3 e0 e1 e2 e3 e0 e1 e2 e3 e0 e1 e2 e3 e0 e1 e2 e3 e0 e1 e2 e3 e0 e1 e2 e3 e0 e1 e2 e3 e0 e1 e2 e3 e0 e1 e2 e3 e0 e1 e2 e3 e0 e1 e2 e3 e0 e1 e2 e3 e0 e1 e2 e3 e0 e1 e2 e3 e0 e1 e2 e3 e0 e1 e2 e3 e0 e1 e2 e3 e0 e1 e2 e3 e0 e1 e2 e3 e0 e1 e2 e3 e0 e1 e2 e3 e0 e1 e2 e3 e0 e1 e2 e3 e0 e1 e2 e3 e0 e1 e2 e3 e0 e1 e2 e3 e0 e1 e2 e3 e0 e1 e2 e3 e0 e1 e2 e3 e0 e1 e2 e3 e0 e1 e2 e3 e0 e1 e2 e3 e0 e1 e2 e3 e0 e1 e2 e3 e0 e1 e2 e3 e0 e1 e2 e3 e0 e1 e2 e3 e0 e1 e2 e3 e0 e1 e2 e3 e0 e1 e2 e3 e0 e1 e2 e3 e0 e1 e2 e3 e0 e1 e2 e3 e0 e1 e2 e3 e0 e1 e2 e3 e0 e1 e2 e3 e0 e1 e2 e3 e0 e1 e2 e3 e0 e1 e2 e3 e0 e1 e2 e3 e0 e1 e2 e3 e0 e1 e2 e3 e0 e1 e2 e3 e0 e1 e2 e3 e0 e1 e2 e3 e0 e1 e2 e3 e0 e1 e2 e3 e0 e1 e2 e3 e0 e1 e2 e3 e0 e1 e2 e3 e0 e1 e2 e3 e0 e1 e2 e3 e0 e1 e2 e3 e0 e1 e2 e3 e0 e1 e2 e3 e0 e1 e2 e3 e0 e1 e2 e3 e0 e1 e2 e3 e0 e1 e2 e3 e0 e1 e2 e3 e0 e1 e2 e3 e0 e1 e2 e3 e0 e1 e2 e3 e0 e1 e2 e3 e0 e1 e2 e3 e0 e1 e2 e3 e0 e1 e2 e3 e0 e1 e2 e3 e0 e1 e2 e3 e0 e1 e2 e3 e0 e1 e2 e3 e0 e1 e2 e3 e0 e1 e2 e3 e0 e1 e2 e3 e0 e1 e2 e3 e0 e1 e2 e3 e0 e1 e2 e3 e0 e1 e2 e3 e0 e1 e2 e3 e0 e1 e2 e3 e0 e1 e2 e3 e0 e1 e2 e3 e0 e1 e2 e3 e0 e1 e2 e3 e0 e1 e2 e3 e0 e1 e2 e3 e0 e1 e2 e3 e0 e1 e2 e3 e0 e1 e2 e3 e0 e1 e2 e3 e0 e1 e2 e3 e0 e1 e2 e3 e0 e1 e2 e3 e0 e1 e2 e3 e0 e1 e2 e3 e0 e1 e2 e3 e0 e1 e2 e3 e0 e1 e2 e3 e0 e1 e2 e3 e0 e1 e2 e3 e0 e1 e2 e3 e0 e1 e2 e3 e0 e1 e2 e3 e0 e1 e2 e3 e0 e1 e2 e3 e0 e1 e2 e3 e0 e1 e2 e3 e0 e1 e2 e3 e0 e1 e2 e3 e0 e1 e2 e3 e0 e1 e2 e3 e0 e1 e2 e3 e0 e1 e2 e3 e0 e1 e2 e3 e0 e1 e2 e3 e0 e1 e2 e3 e0 e1 e2 e3 e0 e1 e2 e3 e0 e1 e2 e3 e0 e1 e2 e3 e0 e1 e2 e3 e0 e1 e2 e3 e0 e1 e2 e3 e0 e1 e2 e3 e0 e1 e2 e3 e0 e1 e2 e3 e0 e1 e2 e3 e0 e1 e2 e3 e0 e1 e2 e3 e0 e1 e2 e3 e0 e1 e2 e3 e0 e1 e2 e3 e0 e1 e2 e3 e0 e1 e2 e3 e0 e1 e2 e3 e0 e1 e2 e3 e0 e1 e2 e3 e0 e1 e2 e3 e0 e1 e2 e3 e0 e1 e2 e3 e0 e1 e2 e3 e0 e1 e2 e3 e0 e1 e2 e3 e0 e1 e2 e3"/>
  <vehicle id="veh1" type="HV" route="r1" depart="0" departPos="28.57" departSpeed="max"/>
  <route id="r2" edges="e0 e1 e2 e3 e0 e1 e2 e3 e0 e1 e2 e3 e0 e1 e2 e3 e0 e1 e2 e3 e0 e1 e2 e3 e0 e1 e2 e3 e0 e1 e2 e3 e0 e1 e2 e3 e0 e1 e2 e3 e0 e1 e2 e3 e0 e1 e2 e3 e0 e1 e2 e3 e0 e1 e2 e3 e0 e1 e2 e3 e0 e1 e2 e3 e0 e1 e2 e3 e0 e1 e2 e3 e0 e1 e2 e3 e0 e1 e2 e3 e0 e1 e2 e3 e0 e1 e2 e3 e0 e1 e2 e3 e0 e1 e2 e3 e0 e1 e2 e3 e0 e1 e2 e3 e0 e1 e2 e3 e0 e1 e2 e3 e0 e1 e2 e3 e0 e1 e2 e3 e0 e1 e2 e3 e0 e1 e2 e3 e0 e1 e2 e3 e0 e1 e2 e3 e0 e1 e2 e3 e0 e1 e2 e3 e0 e1 e2 e3 e0 e1 e2 e3 e0 e1 e2 e3 e0 e1 e2 e3 e0 e1 e2 e3 e0 e1 e2 e3 e0 e1 e2 e3 e0 e1 e2 e3 e0 e1 e2 e3 e0 e1 e2 e3 e0 e1 e2 e3 e0 e1 e2 e3 e0 e1 e2 e3 e0 e1 e2 e3 e0 e1 e2 e3 e0 e1 e2 e3 e0 e1 e2 e3 e0 e1 e2 e3 e0 e1 e2 e3 e0 e1 e2 e3 e0 e1 e2 e3 e0 e1 e2 e3 e0 e1 e2 e3 e0 e1 e2 e3 e0 e1 e2 e3 e0 e1 e2 e3 e0 e1 e2 e3 e0 e1 e2 e3 e0 e1 e2 e3 e0 e1 e2 e3 e0 e1 e2 e3 e0 e1 e2 e3 e0 e1 e2 e3 e0 e1 e2 e3 e0 e1 e2 e3 e0 e1 e2 e3 e0 e1 e2 e3 e0 e1 e2 e3 e0 e1 e2 e3 e0 e1 e2 e3 e0 e1 e2 e3 e0 e1 e2 e3 e0 e1 e2 e3 e0 e1 e2 e3 e0 e1 e2 e3 e0 e1 e2 e3 e0 e1 e2 e3 e0 e1 e2 e3 e0 e1 e2 e3 e0 e1 e2 e3 e0 e1 e2 e3 e0 e1 e2 e3 e0 e1 e2 e3 e0 e1 e2 e3 e0 e1 e2 e3 e0 e1 e2 e3 e0 e1 e2 e3 e0 e1 e2 e3 e0 e1 e2 e3 e0 e1 e2 e3 e0 e1 e2 e3 e0 e1 e2 e3 e0 e1 e2 e3 e0 e1 e2 e3 e0 e1 e2 e3 e0 e1 e2 e3 e0 e1 e2 e3 e0 e1 e2 e3 e0 e1 e2 e3 e0 e1 e2 e3 e0 e1 e2 e3 e0 e1 e2 e3 e0 e1 e2 e3 e0 e1 e2 e3 e0 e1 e2 e3 e0 e1 e2 e3 e0 e1 e2 e3 e0 e1 e2 e3 e0 e1 e2 e3 e0 e1 e2 e3 e0 e1 e2 e3 e0 e1 e2 e3 e0 e1 e2 e3 e0 e1 e2 e3 e0 e1 e2 e3 e0 e1 e2 e3 e0 e1 e2 e3 e0 e1 e2 e3 e0 e1 e2 e3 e0 e1 e2 e3 e0 e1 e2 e3 e0 e1 e2 e3 e0 e1 e2 e3 e0 e1 e2 e3 e0 e1 e2 e3 e0 e1 e2 e3 e0 e1 e2 e3 e0 e1 e2 e3 e0 e1 e2 e3 e0 e1 e2 e3 e0 e1 e2 e3 e0 e1 e2 e3 e0 e1 e2 e3 e0 e1 e2 e3 e0 e1 e2 e3 e0 e1 e2 e3 e0 e1 e2 e3 e0 e1 e2 e3 e0 e1 e2 e3 e0 e1 e2 e3 e0 e1 e2 e3 e0 e1 e2 e3 e0 e1 e2 e3 e0 e1 e2 e3 e0 e1 e2 e3 e0 e1 e2 e3 e0 e1 e2 e3 e0 e1 e2 e3 e0 e1 e2 e3 e0 e1 e2 e3 e0 e1 e2 e3 e0 e1 e2 e3 e0 e1 e2 e3 e0 e1 e2 e3 e0 e1 e2 e3 e0 e1 e2 e3 e0 e1 e2 e3 e0 e1 e2 e3 e0 e1 e2 e3 e0 e1 e2 e3 e0 e1 e2 e3 e0 e1 e2 e3 e0 e1 e2 e3 e0 e1 e2 e3 e0 e1 e2 e3 e0 e1 e2 e3 e0 e1 e2 e3 e0 e1 e2 e3 e0 e1 e2 e3 e0 e1 e2 e3 e0 e1 e2 e3 e0 e1 e2 e3 e0 e1 e2 e3 e0 e1 e2 e3 e0 e1 e2 e3 e0 e1 e2 e3 e0 e1 e2 e3 e0 e1 e2 e3 e0 e1 e2 e3 e0 e1 e2 e3 e0 e1 e2 e3 e0 e1 e2 e3 e0 e1 e2 e3 e0 e1 e2 e3 e0 e1 e2 e3 e0 e1 e2 e3 e0 e1 e2 e3 e0 e1 e2 e3 e0 e1 e2 e3 e0 e1 e2 e3 e0 e1 e2 e3 e0 e1 e2 e3 e0 e1 e2 e3 e0 e1 e2 e3 e0 e1 e2 e3 e0 e1 e2 e3 e0 e1 e2 e3 e0 e1 e2 e3 e0 e1 e2 e3 e0 e1 e2 e3 e0 e1 e2 e3 e0 e1 e2 e3 e0 e1 e2 e3 e0 e1 e2 e3 e0 e1 e2 e3 e0 e1 e2 e3 e0 e1 e2 e3 e0 e1 e2 e3 e0 e1 e2 e3 e0 e1 e2 e3 e0 e1 e2 e3 e0 e1 e2 e3 e0 e1 e2 e3 e0 e1 e2 e3 e0 e1 e2 e3 e0 e1 e2 e3 e0 e1 e2 e3 e0 e1 e2 e3 e0 e1 e2 e3 e0 e1 e2 e3 e0 e1 e2 e3 e0 e1 e2 e3 e0 e1 e2 e3 e0 e1 e2 e3 e0 e1 e2 e3 e0 e1 e2 e3 e0 e1 e2 e3 e0 e1 e2 e3 e0 e1 e2 e3 e0 e1 e2 e3 e0 e1 e2 e3 e0 e1 e2 e3 e0 e1 e2 e3 e0 e1 e2 e3 e0 e1 e2 e3 e0 e1 e2 e3 e0 e1 e2 e3 e0 e1 e2 e3 e0 e1 e2 e3 e0 e1 e2 e3 e0 e1 e2 e3 e0 e1 e2 e3 e0 e1 e2 e3 e0 e1 e2 e3 e0 e1 e2 e3 e0 e1 e2 e3 e0 e1 e2 e3 e0 e1 e2 e3 e0 e1 e2 e3 e0 e1 e2 e3 e0 e1 e2 e3 e0 e1 e2 e3 e0 e1 e2 e3 e0 e1 e2 e3 e0 e1 e2 e3 e0 e1 e2 e3 e0 e1 e2 e3 e0 e1 e2 e3 e0 e1 e2 e3 e0 e1 e2 e3 e0 e1 e2 e3 e0 e1 e2 e3 e0 e1 e2 e3 e0 e1 e2 e3 e0 e1 e2 e3 e0 e1 e2 e3 e0 e1 e2 e3 e0 e1 e2 e3 e0 e1 e2 e3 e0 e1 e2 e3 e0 e1 e2 e3 e0 e1 e2 e3 e0 e1 e2 e3 e0 e1 e2 e3 e0 e1 e2 e3 e0 e1 e2 e3 e0 e1 e2 e3 e0 e1 e2 e3 e0 e1 e2 e3 e0 e1 e2 e3 e0 e1 e2 e3 e0 e1 e2 e3 e0 e1 e2 e3 e0 e1 e2 e3 e0 e1 e2 e3 e0 e1 e2 e3 e0 e1 e2 e3 e0 e1 e2 e3 e0 e1 e2 e3 e0 e1 e2 e3 e0 e1 e2 e3 e0 e1 e2 e3 e0 e1 e2 e3 e0 e1 e2 e3"/>
  <vehicle id="veh2" type="HV" route="r2" depart="0" departPos="57.14" departSpeed="max"/>
  <route id="r3" edges="e0 e1 e2 e3 e0 e1 e2 e3 e0 e1 e2 e3 e0 e1 e2 e3 e0 e1 e2 e3 e0 e1 e2 e3 e0 e1 e2 e3 e0 e1 e2 e3 e0 e1 e2 e3 e0 e1 e2 e3 e0 e1 e2 e3 e0 e1 e2 e3 e0 e1 e2 e3 e0 e1 e2 e3 e0 e1 e2 e3 e0 e1 e2 e3 e0 e1 e2 e3 e0 e1 e2 e3 e0 e1 e2 e3 e0 e1 e2 e3 e0 e1 e2 e3 e0 e1 e2 e3 e0 e1 e2 e3 e0 e1 e2 e3 e0 e1 e2 e3 e0 e1 e2 e3 e0 e1 e2 e3 e0 e1 e2 e3 e0 e1 e2 e3 e0 e1 e2 e3 e0 e1 e2 e3 e0 e1 e2 e3 e0 e1 e2 e3 e0 e1 e2 e3 e0 e1 e2 e3 e0 e1 e2 e3 e0 e1 e2 e3 e0 e1 e2 e3 e0 e1 e2 e3 e0 e1 e2 e3 e0 e1 e2 e3 e0 e1 e2 e3 e0 e1 e2 e3 e0 e1 e2 e3 e0 e1 e2 e3 e0 e1 e2 e3 e0 e1 e2 e3 e0 e1 e2 e3 e0 e1 e2 e3 e0 e1 e2 e3 e0 e1 e2 e3 e0 e1 e2 e3 e0 e1 e2 e3 e0 e1 e2 e3 e0 e1 e2 e3 e0 e1 e2 e3 e0 e1 e2 e3 e0 e1 e2 e3 e0 e1 e2 e3 e0 e1 e2 e3 e0 e1 e2 e3 e0 e1 e2 e3 e0 e1 e2 e3 e0 e1 e2 e3 e0 e1 e2 e3 e0 e1 e2 e3 e0 e1 e2 e3 e0 e1 e2 e3 e0 e1 e2 e3 e0 e1 e2 e3 e0 e1 e2 e3 e0 e1 e2 e3 e0 e1 e2 e3 e0 e1 e2 e3 e0 e1 e2 e3 e0 e1 e2 e3 e0 e1 e2 e3 e0 e1 e2 e3 e0 e1 e2 e3 e0 e1 e2 e3 e0 e1 e2 e3 e0 e1 e2 e3 e0 e1 e2 e3 e0 e1 e2 e3 e0 e1 e2 e3 e0 e1 e2 e3 e0 e1 e2 e3 e0 e1 e2 e3 e0 e1 e2 e3 e0 e1 e2 e3 e0 e1 e2 e3 e0 e1 e2 e3 e0 e1 e2 e3 e0 e1 e2 e3 e0 e1 e2 e3 e0 e1 e2 e3 e0 e1 e2 e3 e0 e1 e2 e3 e0 e1 e2 e3 e0 e1 e2 e3 e0 e1 e2 e3 e0 e1 e2 e3 e0 e1 e2 e3 e0 e1 e2 e3 e0 e1 e2 e3 e0 e1 e2 e3 e0 e1 e2 e3 e0 e1 e2 e3 e0 e1 e2 e3 e0 e1 e2 e3 e0 e1 e2 e3 e0 e1 e2 e3 e0 e1 e2 e3 e0 e1 e2 e3 e0 e1 e2 e3 e0 e1 e2 e3 e0 e1 e2 e3 e0 e1 e2 e3 e0 e1 e2 e3 e0 e1 e2 e3 e0 e1 e2 e3 e0 e1 e2 e3 e0 e1 e2 e3 e0 e1 e2 e3 e0 e1 e2 e3 e0 e1 e2 e3 e0 e1 e2 e3 e0 e1 e2 e3 e0 e1 e2 e3 e0 e1 e2 e3 e0 e1 e2 e3 e0 e1 e2 e3 e0 e1 e2 e3 e0 e1 e2 e3 e0 e1 e2 e3 e0 e1 e2 e3 e0 e1 e2 e3 e0 e1 e2 e3 e0 e1 e2 e3 e0 e1 e2 e3 e0 e1 e2 e3 e0 e1 e2 e3 e0 e1 e2 e3 e0 e1 e2 e3 e0 e1 e2 e3 e0 e1 e2 e3 e0 e1 e2 e3 e0 e1 e2 e3 e0 e1 e2 e3 e0 e1 e2 e3 e0 e1 e2 e3 e0 e1 e2 e3 e0 e1 e2 e3 e0 e1 e2 e3 e0 e1 e2 e3 e0 e1 e2 e3 e0 e1 e2 e3 e0 e1 e2 e3 e0 e1 e2 e3 e0 e1 e2 e3 e0 e1 e2 e3 e0 e1 e2 e3 e0 e1 e2 e3 e0 e1 e2 e3 e0 e1 e2 e3 e0 e1 e2 e3 e0 e1 e2 e3 e0 e1 e2 e3 e0 e1 e2 e3 e0 e1 e2 e3 e0 e1 e2 e3 e0 e1 e2 e3 e0 e1 e2 e3 e0 e1 e2 e3 e0 e1 e2 e3 e0 e1 e2 e3 e0 e1 e2 e3 e0 e1 e2 e3 e0 e1 e2 e3 e0 e1 e2 e3 e0 e1 e2 e3 e0 e1 e2 e3 e0 e1 e2 e3 e0 e1 e2 e3 e0 e1 e2 e3 e0 e1 e2 e3 e0 e1 e2 e3 e0 e1 e2 e3 e0 e1 e2 e3 e0 e1 e2 e3 e0 e1 e2 e3 e0 e1 e2 e3 e0 e1 e2 e3 e0 e1 e2 e3 e0 e1 e2 e3 e0 e1 e2 e3 e0 e1 e2 e3 e0 e1 e2 e3 e0 e1 e2 e3 e0 e1 e2 e3 e0 e1 e2 e3 e0 e1 e2 e3 e0 e1 e2 e3 e0 e1 e2 e3 e0 e1 e2 e3 e0 e1 e2 e3 e0 e1 e2 e3 e0 e1 e2 e3 e0 e1 e2 e3 e0 e1 e2 e3 e0 e1 e2 e3 e0 e1 e2 e3 e0 e1 e2 e3 e0 e1 e2 e3 e0 e1 e2 e3 e0 e1 e2 e3 e0 e1 e2 e3 e0 e1 e2 e3 e0 e1 e2 e3 e0 e1 e2 e3 e0 e1 e2 e3 e0 e1 e2 e3 e0 e1 e2 e3 e0 e1 e2 e3 e0 e1 e2 e3 e0 e1 e2 e3 e0 e1 e2 e3 e0 e1 e2 e3 e0 e1 e2 e3 e0 e1 e2 e3 e0 e1 e2 e3 e0 e1 e2 e3 e0 e1 e2 e3 e0 e1 e2 e3 e0 e1 e2 e3 e0 e1 e2 e3 e0 e1 e2 e3 e0 e1 e2 e3 e0 e1 e2 e3 e0 e1 e2 e3 e0 e1 e2 e3 e0 e1 e2 e3 e0 e1 e2 e3 e0 e1 e2 e3 e0 e1 e2 e3 e0 e1 e2 e3 e0 e1 e2 e3 e0 e1 e2 e3 e0 e1 e2 e3 e0 e1 e2 e3 e0 e1 e2 e3 e0 e1 e2 e3 e0 e1 e2 e3 e0 e1 e2 e3 e0 e1 e2 e3 e0 e1 e2 e3 e0 e1 e2 e3 e0 e1 e2 e3 e0 e1 e2 e3 e0 e1 e2 e3 e0 e1 e2 e3 e0 e1 e2 e3 e0 e1 e2 e3 e0 e1 e2 e3 e0 e1 e2 e3 e0 e1 e2 e3 e0 e1 e2 e3 e0 e1 e2 e3 e0 e1 e2 e3 e0 e1 e2 e3 e0 e1 e2 e3 e0 e1 e2 e3 e0 e1 e2 e3 e0 e1 e2 e3 e0 e1 e2 e3 e0 e1 e2 e3 e0 e1 e2 e3 e0 e1 e2 e3 e0 e1 e2 e3 e0 e1 e2 e3 e0 e1 e2 e3 e0 e1 e2 e3 e0 e1 e2 e3 e0 e1 e2 e3 e0 e1 e2 e3 e0 e1 e2 e3 e0 e1 e2 e3 e0 e1 e2 e3 e0 e1 e2 e3 e0 e1 e2 e3 e0 e1 e2 e3 e0 e1 e2 e3 e0 e1 e2 e3 e0 e1 e2 e3 e0 e1 e2 e3 e0 e1 e2 e3 e0 e1 e2 e3 e0 e1 e2 e3 e0 e1 e2 e3 e0 e1 e2 e3"/>
  <vehicle id="veh3" type="HV" route="r3" depart="0" departPos="85.71" departSpeed="max"/>
  <route id="r4" edges="e0 e1 e2 e3 e0 e1 e2 e3 e0 e1 e2 e3 e0 e1 e2 e3 e0 e1 e2 e3 e0 e1 e2 e3 e0 e1 e2 e3 e0 e1 e2 e3 e0 e1 e2 e3 e0 e1 e2 e3 e0 e1 e2 e3 e0 e1 e2 e3 e0 e1 e2 e3 e0 e1 e2 e3 e0 e1 e2 e3 e0 e1 e2 e3 e0 e1 e2 e3 e0 e1 e2 e3 e0 e1 e2 e3 e0 e1 e2 e3 e0 e1 e2 e3 e0 e1 e2 e3 e0 e1 e2 e3 e0 e1 e2 e3 e0 e1 e2 e3 e0 e1 e2 e3 e0 e1 e2 e3 e0 e1 e2 e3 e0 e1 e2 e3 e0 e1 e2 e3 e0 e1 e2 e3 e0 e1 e2 e3 e0 e1 e2 e3 e0 e1 e2 e3 e0 e1 e2 e3 e0 e1 e2 e3 e0 e1 e2 e3 e0 e1 e2 e3 e0 e1 e2 e3 e0 e1 e2 e3 e0 e1 e2 e3 e0 e1 e2 e3 e0 e1 e2 e3 e0 e1 e2 e3 e0 e1 e2 e3 e0 e1 e2 e3 e0 e1 e2 e3 e0 e1 e2 e3 e0 e1 e2 e3 e0 e1 e2 e3 e0 e1 e2 e3 e0 e1 e2 e3 e0 e1 e2 e3 e0 e1 e2 e3 e0 e1 e2 e3 e0 e1 e2 e3 e0 e1 e2 e3 e0 e1 e2 e3 e0 e1 e2 e3 e0 e1 e2 e3 e0 e1 e2 e3 e0 e1 e2 e3 e0 e1 e2 e3 e0 e1 e2 e3 e0 e1 e2 e3 e0 e1 e2 e3 e0 e1 e2 e3 e0 e1 e2 e3 e0 e1 e2 e3 e0 e1 e2 e3 e0 e1 e2 e3 e0 e1 e2 e3 e0 e1 e2 e3 e0 e1 e2 e3 e0 e1 e2 e3 e0 e1 e2 e3 e0 e1 e2 e3 e0 e1 e2 e3 e0 e1 e2 e3 e0 e1 e2 e3 e0 e1 e2 e3 e0 e1 e2 e3 e0 e1 e2 e3 e0 e1 e2 e3 e0 e1 e2 e3 e0 e1 e2 e3 e0 e1 e2 e3 e0 e1 e2 e3 e0 e1 e2 e3 e0 e1 e2 e3 e0 e1 e2 e3 e0 e1 e2 e3 e0 e1 e2 e3 e0 e1 e2 e3 e0 e1 e2 e3 e0 e1 e2 e3 e0 e1 e2 e3 e0 e1 e2 e3 e0 e1 e2 e3 e0 e1 e2 e3 e0 e1 e2 e3 e0 e1 e2 e3 e0 e1 e2 e3 e0 e1 e2 e3 e0 e1 e2 e3 e0 e1 e2 e3 e0 e1 e2 e3 e0 e1 e2 e3 e0 e1 e2 e3 e0 e1 e2 e3 e0 e1 e2 e3 e0 e1 e2 e3 e0 e1 e2 e3 e0 e1 e2 e3 e0 e1 e2 e3 e0 e1 e2 e3 e0 e1 e2 e3 e0 e1 e2 e3 e0 e1 e2 e3 e0 e1 e2 e3 e0 e1 e2 e3 e0 e1 e2 e3 e0 e1 e2 e3 e0 e1 e2 e3 e0 e1 e2 e3 e0 e1 e2 e3 e0 e1 e2 e3 e0 e1 e2 e3 e0 e1 e2 e3 e0 e1 e2 e3 e0 e1 e2 e3 e0 e1 e2 e3 e0 e1 e2 e3 e0 e1 e2 e3 e0 e1 e2 e3 e0 e1 e2 e3 e0 e1 e2 e3 e0 e1 e2 e3 e0 e1 e2 e3 e0 e1 e2 e3 e0 e1 e2 e3 e0 e1 e2 e3 e0 e1 e2 e3 e0 e1 e2 e3 e0 e1 e2 e3 e0 e1 e2 e3 e0 e1 e2 e3 e0 e1 e2 e3 e0 e1 e2 e3 e0 e1 e2 e3 e0 e1 e2 e3 e0 e1 e2 e3 e0 e1 e2 e3 e0 e1 e2 e3 e0 e1 e2 e3 e0 e1 e2 e3 e0 e1 e2 e3 e0 e1 e2 e3 e0 e1 e2 e3 e0 e1 e2 e3 e0 e1 e2 e3 e0 e1 e2 e3 e0 e1 e2 e3 e0 e1 e2 e3 e0 e1 e2 e3 e0 e1 e2 e3 e0 e1 e2 e3 e0 e1 e2 e3 e0 e1 e2 e3 e0 e1 e2 e3 e0 e1 e2 e3 e0 e1 e2 e3 e0 e1 e2 e3 e0 e1 e2 e3 e0 e1 e2 e3 e0 e1 e2 e3 e0 e1 e2 e3 e0 e1 e2 e3 e0 e1 e2 e3 e0 e1 e2 e3 e0 e1 e2 e3 e0 e1 e2 e3 e0 e1 e2 e3 e0 e1 e2 e3 e0 e1 e2 e3 e0 e1 e2 e3 e0 e1 e2 e3 e0 e1 e2 e3 e0 e1 e2 e3 e0 e1 e2 e3 e0 e1 e2 e3 e0 e1 e2 e3 e0 e1 e2 e3 e0 e1 e2 e3 e0 e1 e2 e3 e0 e1 e2 e3 e0 e1 e2 e3 e0 e1 e2 e3 e0 e1 e2 e3 e0 e1 e2 e3 e0 e1 e2 e3 e0 e1 e2 e3 e0 e1 e2 e3 e0 e1 e2 e3 e0 e1 e2 e3 e0 e1 e2 e3 e0 e1 e2 e3 e0 e1 e2 e3 e0 e1 e2 e3 e0 e1 e2 e3 e0 e1 e2 e3 e0 e1 e2 e3 e0 e1 e2 e3 e0 e1 e2 e3 e0 e1 e2 e3 e0 e1 e2 e3 e0 e1 e2 e3 e0 e1 e2 e3 e0 e1 e2 e3 e0 e1 e2 e3 e0 e1 e2 e3 e0 e1 e2 e3 e0 e1 e2 e3 e0 e1 e2 e3 e0 e1 e2 e3 e0 e1 e2 e3 e0 e1 e2 e3 e0 e1 e2 e3 e0 e1 e2 e3 e0 e1 e2 e3 e0 e1 e2 e3 e0 e1 e2 e3 e0 e1 e2 e3 e0 e1 e2 e3 e0 e1 e2 e3 e0 e1 e2 e3 e0 e1 e2 e3 e0 e1 e2 e3 e0 e1 e2 e3 e0 e1 e2 e3 e0 e1 e2 e3 e0 e1 e2 e3 e0 e1 e2 e3 e0 e1 e2 e3 e0 e1 e2 e3 e0 e1 e2 e3 e0 e1 e2 e3 e0 e1 e2 e3 e0 e1 e2 e3 e0 e1 e2 e3 e0 e1 e2 e3 e0 e1 e2 e3 e0 e1 e2 e3 e0 e1 e2 e3 e0 e1 e2 e3 e0 e1 e2 e3 e0 e1 e2 e3 e0 e1 e2 e3 e0 e1 e2 e3 e0 e1 e2 e3 e0 e1 e2 e3 e0 e1 e2 e3 e0 e1 e2 e3 e0 e1 e2 e3 e0 e1 e2 e3 e0 e1 e2 e3 e0 e1 e2 e3 e0 e1 e2 e3 e0 e1 e2 e3 e0 e1 e2 e3 e0 e1 e2 e3 e0 e1 e2 e3 e0 e1 e2 e3 e0 e1 e2 e3 e0 e1 e2 e3 e0 e1 e2 e3 e0 e1 e2 e3 e0 e1 e2 e3 e0 e1 e2 e3 e0 e1 e2 e3 e0 e1 e2 e3 e0 e1 e2 e3 e0 e1 e2 e3 e0 e1 e2 e3 e0 e1 e2 e3 e0 e1 e2 e3 e0 e1 e2 e3 e0 e1 e2 e3 e0 e1 e2 e3 e0 e1 e2 e3 e0 e1 e2 e3 e0 e1 e2 e3 e0 e1 e2 e3 e0 e1 e2 e3 e0 e1 e2 e3 e0 e1 e2 e3 e0 e1 e2 e3 e0 e1 e2 e3 e0 e1 e2 e3 e0 e1 e2 e3"/>
  <vehicle id="veh4" type="HV" route="r4" depart="0" departPos="114.29" departSpeed="max"/>
  <route id="r5" edges="e0 e1 e2 e3 e0 e1 e2 e3 e0 e1 e2 e3 e0 e1 e2 e3 e0 e1 e2 e3 e0 e1 e2 e3 e0 e1 e2 e3 e0 e1 e2 e3 e0 e1 e2 e3 e0 e1 e2 e3 e0 e1 e2 e3 e0 e1 e2 e3 e0 e1 e2 e3 e0 e1 e2 e3 e0 e1 e2 e3 e0 e1 e2 e3 e0 e1 e2 e3 e0 e1 e2 e3 e0 e1 e2 e3 e0 e1 e2 e3 e0 e1 e2 e3 e0 e1 e2 e3 e0 e1 e2 e3 e0 e1 e2 e3 e0 e1 e2 e3 e0 e1 e2 e3 e0 e1 e2 e3 e0 e1 e2 e3 e0 e1 e2 e3 e0 e1 e2 e3 e0 e1 e2 e3 e0 e1 e2 e3 e0 e1 e2 e3 e0 e1 e2 e3 e0 e1 e2 e3 e0 e1 e2 e3 e0 e1 e2 e3 e0 e1 e2 e3 e0 e1 e2 e3 e0 e1 e2 e3 e0 e1 e2 e3 e0 e1 e2 e3 e0 e1 e2 e3 e0 e1 e2 e3 e0 e1 e2 e3 e0 e1 e2 e3 e0 e1 e2 e3 e0 e1 e2 e3 e0 e1 e2 e3 e0 e1 e2 e3 e0 e1 e2 e3 e0 e1 e2 e3 e0 e1 e2 e3 e0 e1 e2 e3 e0 e1 e2 e3 e0 e1 e2 e3 e0 e1 e2 e3 e0 e1 e2 e3 e0 e1 e2 e3 e0 e1 e2 e3 e0 e1 e2 e3 e0 e1 e2 e3 e0 e1 e2 e3 e0 e1 e2 e3 e0 e1 e2 e3 e0 e1 e2 e3 e0 e1 e2 e3 e0 e1 e2 e3 e0 e1 e2 e3 e0 e1 e2 e3 e0 e1 e2 e3 e0 e1 e2 e3 e0 e1 e2 e3 e0 e1 e2 e3 e0 e1 e2 e3 e0 e1 e2 e3 e0 e1 e2 e3 e0 e1 e2 e3 e0 e1 e2 e3 e0 e1 e2 e3 e0 e1 e2 e3 e0 e1 e2 e3 e0 e1 e2 e3 e0 e1 e2 e3 e0 e1 e2 e3 e0 e1 e2 e3 e0 e1 e2 e3 e0 e1 e2 e3 e0 e1 e2 e3 e0 e1 e2 e3 e0 e1 e2 e3 e0 e1 e2 e3 e0 e1 e2 e3 e0 e1 e2 e3 e0 e1 e2 e3 e0 e1 e2 e3 e0 e1 e2 e3 e0 e1 e2 e3 e0 e1 e2 e3 e0 e1 e2 e3 e0 e1 e2 e3 e0 e1 e2 e3 e0 e1 e2 e3 e0 e1 e2 e3 e0 e1 e2 e3 e0 e1 e2 e3 e0 e1 e2 e3 e0 e1 e2 e3 e0 e1 e2 e3 e0 e1 e2 e3 e0 e1 e2 e3 e0 e1 e2 e3 e0 e1 e2 e3 e0 e1 e2 e3 e0 e1 e2 e3 e0 e1 e2 e3 e0 e1 e2 e3 e0 e1 e2 e3 e0 e1 e2 e3 e0 e1 e2 e3 e0 e1 e2 e3 e0 e1 e2 e3 e0 e1 e2 e3 e0 e1 e2 e3 e0 e1 e2 e3 e0 e1 e2 e3 e0 e1 e2 e3 e0 e1 e2 e3 e0 e1 e2 e3 e0 e1 e2 e3 e0 e1 e2 e3 e0 e1 e2 e3 e0 e1 e2 e3 e0 e1 e2 e3 e0 e1 e2 e3 e0 e1 e2 e3 e0 e1 e2 e3 e0 e1 e2 e3 e0 e1 e2 e3 e0 e1 e2 e3 e0 e1 e2 e3 e0 e1 e2 e3 e0 e1 e2 e3 e0 e1 e2 e3 e0 e1 e2 e3 e0 e1 e2 e3 e0 e1 e2 e3 e0 e1 e2 e3 e0 e1 e2 e3 e0 e1 e2 e3 e0 e1 e2 e3 e0 e1 e2 e3 e0 e1 e2 e3 e0 e1 e2 e3 e0 e1 e2 e3 e0 e1 e2 e3 e0 e1 e2 e3 e0 e1 e2 e3 e0 e1 e2 e3 e0 e1 e2 e3 e0 e1 e2 e3 e0 e1 e2 e3 e0 e1 e2 e3 e0 e1 e2 e3 e0 e1 e2 e3 e0 e1 e2 e3 e0 e1 e2 e3 e0 e1 e2 e3 e0 e1 e2 e3 e0 e1 e2 e3 e0 e1 e2 e3 e0 e1 e2 e3 e0 e1 e2 e3 e0 e1 e2 e3 e0 e1 e2 e3 e0 e1 e2 e3 e0 e1 e2 e3 e0 e1 e2 e3 e0 e1 e2 e3 e0 e1 e2 e3 e0 e1 e2 e3 e0 e1 e2 e3 e0 e1 e2 e3 e0 e1 e2 e3 e0 e1 e2 e3 e0 e1 e2 e3 e0 e1 e2 e3 e0 e1 e2 e3 e0 e1 e2 e3 e0 e1 e2 e3 e0 e1 e2 e3 e0 e1 e2 e3 e0 e1 e2 e3 e0 e1 e2 e3 e0 e1 e2 e3 e0 e1 e2 e3 e0 e1 e2 e3 e0 e1 e2 e3 e0 e1 e2 e3 e0 e1 e2 e3 e0 e1 e2 e3 e0 e1 e2 e3 e0 e1 e2 e3 e0 e1 e2 e3 e0 e1 e2 e3 e0 e1 e2 e3 e0 e1 e2 e3 e0 e1 e2 e3 e0 e1 e2 e3 e0 e1 e2 e3 e0 e1 e2 e3 e0 e1 e2 e3 e0 e1 e2 e3 e0 e1 e2 e3 e0 e1 e2 e3 e0 e1 e2 e3 e0 e1 e2 e3 e0 e1 e2 e3 e0 e1 e2 e3 e0 e1 e2 e3 e0 e1 e2 e3 e0 e1 e2 e3 e0 e1 e2 e3 e0 e1 e2 e3 e0 e1 e2 e3 e0 e1 e2 e3 e0 e1 e2 e3 e0 e1 e2 e3 e0 e1 e2 e3 e0 e1 e2 e3 e0 e1 e2 e3 e0 e1 e2 e3 e0 e1 e2 e3 e0 e1 e2 e3 e0 e1 e2 e3 e0 e1 e2 e3 e0 e1 e2 e3 e0 e1 e2 e3 e0 e1 e2 e3 e0 e1 e2 e3 e0 e1 e2 e3 e0 e1 e2 e3 e0 e1 e2 e3 e0 e1 e2 e3 e0 e1 e2 e3 e0 e1 e2 e3 e0 e1 e2 e3 e0 e1 e2 e3 e0 e1 e2 e3 e0 e1 e2 e3 e0 e1 e2 e3 e0 e1 e2 e3 e0 e1 e2 e3 e0 e1 e2 e3 e0 e1 e2 e3 e0 e1 e2 e3 e0 e1 e2 e3 e0 e1 e2 e3 e0 e1 e2 e3 e0 e1 e2 e3 e0 e1 e2 e3 e0 e1 e2 e3 e0 e1 e2 e3 e0 e1 e2 e3 e0 e1 e2 e3 e0 e1 e2 e3 e0 e1 e2 e3 e0 e1 e2 e3 e0 e1 e2 e3 e0 e1 e2 e3 e0 e1 e2 e3 e0 e1 e2 e3 e0 e1 e2 e3 e0 e1 e2 e3 e0 e1 e2 e3 e0 e1 e2 e3 e0 e1 e2 e3 e0 e1 e2 e3 e0 e1 e2 e3 e0 e1 e2 e3 e0 e1 e2 e3 e0 e1 e2 e3 e0 e1 e2 e3 e0 e1 e2 e3 e0 e1 e2 e3 e0 e1 e2 e3 e0 e1 e2 e3 e0 e1 e2 e3 e0 e1 e2 e3 e0 e1 e2 e3 e0 e1 e2 e3 e0 e1 e2 e3 e0 e1 e2 e3 e0 e1 e2 e3 e0 e1 e2 e3 e0 e1 e2 e3 e0 e1 e2 e3 e0 e1 e2 e3 e0 e1 e2 e3 e0 e1 e2 e3"/>
  <vehicle id="veh5" type="HV" route="r5" depart="0" departPos="142.86" departSpeed="max"/>
  <route id="r6" edges="e0 e1 e2 e3 e0 e1 e2 e3 e0 e1 e2 e3 e0 e1 e2 e3 e0 e1 e2 e3 e0 e1 e2 e3 e0 e1 e2 e3 e0 e1 e2 e3 e0 e1 e2 e3 e0 e1 e2 e3 e0 e1 e2 e3 e0 e1 e2 e3 e0 e1 e2 e3 e0 e1 e2 e3 e0 e1 e2 e3 e0 e1 e2 e3 e0 e1 e2 e3 e0 e1 e2 e3 e0 e1 e2 e3 e0 e1 e2 e3 e0 e1 e2 e3 e0 e1 e2 e3 e0 e1 e2 e3 e0 e1 e2 e3 e0 e1 e2 e3 e0 e1 e2 e3 e0 e1 e2 e3 e0 e1 e2 e3 e0 e1 e2 e3 e0 e1 e2 e3 e0 e1 e2 e3 e0 e1 e2 e3 e0 e1 e2 e3 e0 e1 e2 e3 e0 e1 e2 e3 e0 e1 e2 e3 e0 e1 e2 e3 e0 e1 e2 e3 e0 e1 e2 e3 e0 e1 e2 e3 e0 e1 e2 e3 e0 e1 e2 e3 e0 e1 e2 e3 e0 e1 e2 e3 e0 e1 e2 e3 e0 e1 e2 e3 e0 e1 e2 e3 e0 e1 e2 e3 e0 e1 e2 e3 e0 e1 e2 e3 e0 e1 e2 e3 e0 e1 e2 e3 e0 e1 e2 e3 e0 e1 e2 e3 e0 e1 e2 e3 e0 e1 e2 e3 e0 e1 e2 e3 e0 e1 e2 e3 e0 e1 e2 e3 e0 e1 e2 e3 e0 e1 e2 e3 e0 e1 e2 e3 e0 e1 e2 e3 e0 e1 e2 e3 e0 e1 e2 e3 e0 e1 e2 e3 e0 e1 e2 e3 e0 e1 e2 e3 e0 e1 e2 e3 e0 e1 e2 e3 e0 e1 e2 e3 e0 e1 e2 e3 e0 e1 e2 e3 e0 e1 e2 e3 e0 e1 e2 e3 e0 e1 e2 e3 e0 e1 e2 e3 e0 e1 e2 e3 e0 e1 e2 e3 e0 e1 e2 e3 e0 e1 e2 e3 e0 e1 e2 e3 e0 e1 e2 e3 e0 e1 e2 e3 e0 e1 e2 e3 e0 e1 e2 e3 e0 e1 e2 e3 e0 e1 e2 e3 e0 e1 e2 e3 e0 e1 e2 e3 e0 e1 e2 e3 e0 e1 e2 e3 e0 e1 e2 e3 e0 e1 e2 e3 e0 e1 e2 e3 e0 e1 e2 e3 e0 e1 e2 e3 e0 e1 e2 e3 e0 e1 e2 e3 e0 e1 e2 e3 e0 e1 e2 e3 e0 e1 e2 e3 e0 e1 e2 e3 e0 e1 e2 e3 e0 e1 e2 e3 e0 e1 e2 e3 e0 e1 e2 e3 e0 e1 e2 e3 e0 e1 e2 e3 e0 e1 e2 e3 e0 e1 e2 e3 e0 e1 e2 e3 e0 e1 e2 e3 e0 e1 e2 e3 e0 e1 e2 e3 e0 e1 e2 e3 e0 e1 e2 e3 e0 e1 e2 e3 e0 e1 e2 e3 e0 e1 e2 e3 e0 e1 e2 e3 e0 e1 e2 e3 e0 e1 e2 e3 e0 e1 e2 e3 e0 e1 e2 e3 e0 e1 e2 e3 e0 e1 e2 e3 e0 e1 e2 e3 e0 e1 e2 e3 e0 e1 e2 e3 e0 e1 e2 e3 e0 e1 e2 e3 e0 e1 e2 e3 e0 e1 e2 e3 e0 e1 e2 e3 e0 e1 e2 e3 e0 e1 e2 e3 e0 e1 e2 e3 e0 e1 e2 e3 e0 e1 e2 e3 e0 e1 e2 e3 e0 e1 e2 e3 e0 e1 e2 e3 e0 e1 e2 e3 e0 e1 e2 e3 e0 e1 e2 e3 e0 e1 e2 e3 e0 e1 e2 e3 e0 e1 e2 e3 e0 e1 e2 e3 e0 e1 e2 e3 e0 e1 e2 e3 e0 e1 e2 e3 e0 e1 e2 e3 e0 e1 e2 e3 e0 e1 e2 e3 e0 e1 e2 e3 e0 e1 e2 e3 e0 e1 e2 e3 e0 e1 e2 e3 e0 e1 e2 e3 e0 e1 e2 e3 e0 e1 e2 e3 e0 e1 e2 e3 e0 e1 e2 e3 e0 e1 e2 e3 e0 e1 e2 e3 e0 e1 e2 e3 e0 e1 e2 e3 e0 e1 e2 e3 e0 e1 e2 e3 e0 e1 e2 e3 e0 e1 e2 e3 e0 e1 e2 e3 e0 e1 e2 e3 e0 e1 e2 e3 e0 e1 e2 e3 e0 e1 e2 e3 e0 e1 e2 e3 e0 e1 e2 e3 e0 e1 e2 e3 e0 e1 e2 e3 e0 e1 e2 e3 e0 e1 e2 e3 e0 e1 e2 e3 e0 e1 e2 e3 e0 e1 e2 e3 e0 e1 e2 e3 e0 e1 e2 e3 e0 e1 e2 e3 e0 e1 e2 e3 e0 e1 e2 e3 e0 e1 e2 e3 e0 e1 e2 e3 e0 e1 e2 e3 e0 e1 e2 e3 e0 e1 e2 e3 e0 e1 e2 e3 e0 e1 e2 e3 e0 e1 e2 e3 e0 e1 e2 e3 e0 e1 e2 e3 e0 e1 e2 e3 e0 e1 e2 e3 e0 e1 e2 e3 e0 e1 e2 e3 e0 e1 e2 e3 e0 e1 e2 e3 e0 e1 e2 e3 e0 e1 e2 e3 e0 e1 e2 e3 e0 e1 e2 e3 e0 e1 e2 e3 e0 e1 e2 e3 e0 e1 e2 e3 e0 e1 e2 e3 e0 e1 e2 e3 e0 e1 e2 e3 e0 e1 e2 e3 e0 e1 e2 e3 e0 e1 e2 e3 e0 e1 e2 e3 e0 e1 e2 e3 e0 e1 e2 e3 e0 e1 e2 e3 e0 e1 e2 e3 e0 e1 e2 e3 e0 e1 e2 e3 e0 e1 e2 e3 e0 e1 e2 e3 e0 e1 e2 e3 e0 e1 e2 e3 e0 e1 e2 e3 e0 e1 e2 e3 e0 e1 e2 e3 e0 e1 e2 e3 e0 e1 e2 e3 e0 e1 e2 e3 e0 e1 e2 e3 e0 e1 e2 e3 e0 e1 e2 e3 e0 e1 e2 e3 e0 e1 e2 e3 e0 e1 e2 e3 e0 e1 e2 e3 e0 e1 e2 e3 e0 e1 e2 e3 e0 e1 e2 e3 e0 e1 e2 e3 e0 e1 e2 e3 e0 e1 e2 e3 e0 e1 e2 e3 e0 e1 e2 e3 e0 e1 e2 e3 e0 e1 e2 e3 e0 e1 e2 e3 e0 e1 e2 e3 e0 e1 e2 e3 e0 e1 e2 e3 e0 e1 e2 e3 e0 e1 e2 e3 e0 e1 e2 e3 e0 e1 e2 e3 e0 e1 e2 e3 e0 e1 e2 e3 e0 e1 e2 e3 e0 e1 e2 e3 e0 e1 e2 e3 e0 e1 e2 e3 e0 e1 e2 e3 e0 e1 e2 e3 e0 e1 e2 e3 e0 e1 e2 e3 e0 e1 e2 e3 e0 e1 e2 e3 e0 e1 e2 e3 e0 e1 e2 e3 e0 e1 e2 e3 e0 e1 e2 e3 e0 e1 e2 e3 e0 e1 e2 e3 e0 e1 e2 e3 e0 e1 e2 e3 e0 e1 e2 e3 e0 e1 e2 e3 e0 e1 e2 e3 e0 e1 e2 e3 e0 e1 e2 e3 e0 e1 e2 e3 e0 e1 e2 e3 e0 e1 e2 e3 e0 e1 e2 e3 e0 e1 e2 e3 e0 e1 e2 e3 e0 e1 e2 e3 e0 e1 e2 e3 e0 e1 e2 e3 e0 e1 e2 e3 e0 e1 e2 e3 e0 e1 e2 e3"/>
  <vehicle id="veh6" type="HV" route="r6" depart="0" departPos="171.43" departSpeed="max"/>
  <route id="r7" edges="e0 e1 e2 e3 e0 e1 e2 e3 e0 e1 e2 e3 e0 e1 e2 e3 e0 e1 e2 e3 e0 e1 e2 e3 e0 e1 e2 e3 e0 e1 e2 e3 e0 e1 e2 e3 e0 e1 e2 e3 e0 e1 e2 e3 e0 e1 e2 e3 e0 e1 e2 e3 e0 e1 e2 e3 e0 e1 e2 e3 e0 e1 e2 e3 e0 e1 e2 e3 e0 e1 e2 e3 e0 e1 e2 e3 e0 e1 e2 e3 e0 e1 e2 e3 e0 e1 e2 e3 e0 e1 e2 e3 e0 e1 e2 e3 e0 e1 e2 e3 e0 e1 e2 e3 e0 e1 e2 e3 e0 e1 e2 e3 e0 e1 e2 e3 e0 e1 e2 e3 e0 e1 e2 e3 e0 e1 e2 e3 e0 e1 e2 e3 e0 e1 e2 e3 e0 e1 e2 e3 e0 e1 e2 e3 e0 e1 e2 e3 e0 e1 e2 e3 e0 e1 e2 e3 e0 e1 e2 e3 e0 e1 e2 e3 e0 e1 e2 e3 e0 e1 e2 e3 e0 e1 e2 e3 e0 e1 e2 e3 e0 e1 e2 e3 e0 e1 e2 e3 e0 e1 e2 e3 e0 e1 e2 e3 e0 e1 e2 e3 e0 e1 e2 e3 e0 e1 e2 e3 e0 e1 e2 e3 e0 e1 e2 e3 e0 e1 e2 e3 e0 e1 e2 e3 e0 e1 e2 e3 e0 e1 e2 e3 e0 e1 e2 e3 e0 e1 e2 e3 e0 e1 e2 e3 e0 e1 e2 e3 e0 e1 e2 e3 e0 e1 e2 e3 e0 e1 e2 e3 e0 e1 e2 e3 e0 e1 e2 e3 e0 e1 e2 e3 e0 e1 e2 e3 e0 e1 e2 e3 e0 e1 e2 e3 e0 e1 e2 e3 e0 e1 e2 e3 e0 e1 e2 e3 e0 e1 e2 e3 e0 e1 e2 e3 e0 e1 e2 e3 e0 e1 e2 e3 e0 e1 e2 e3 e0 e1 e2 e3 e0 e1 e2 e3 e0 e1 e2 e3 e0 e1 e2 e3 e0 e1 e2 e3 e0 e1 e2 e3 e0 e1 e2 e3 e0 e1 e2 e3 e0 e1 e2 e3 e0 e1 e2 e3 e0 e1 e2 e3 e0 e1 e2 e3 e0 e1 e2 e3 e0 e1 e2 e3 e0 e1 e2 e3 e0 e1 e2 e3 e0 e1 e2 e3 e0 e1 e2 e3 e0 e1 e2 e3 e0 e1 e2 e3 e0 e1 e2 e3 e0 e1 e2 e3 e0 e1 e2 e3 e0 e1 e2 e3 e0 e1 e2 e3 e0 e1 e2 e3 e0 e1 e2 e3 e0 e1 e2 e3 e0 e1 e2 e3 e0 e1 e2 e3 e0 e1 e2 e3 e0 e1 e2 e3 e0 e1 e2 e3 e0 e1 e2 e3 e0 e1 e2 e3 e0 e1 e2 e3 e0 e1 e2 e3 e0 e1 e2 e3 e0 e1 e2 e3 e0 e1 e2 e3 e0 e1 e2 e3 e0 e1 e2 e3 e0 e1 e2 e3 e0 e1 e2 e3 e0 e1 e2 e3 e0 e1 e2 e3 e0 e1 e2 e3 e0 e1 e2 e3 e0 e1 e2 e3 e0 e1 e2 e3 e0 e1 e2 e3 e0 e1 e2 e3 e0 e1 e2 e3 e0 e1 e2 e3 e0 e1 e2 e3 e0 e1 e2 e3 e0 e1 e2 e3 e0 e1 e2 e3 e0 e1 e2 e3 e0 e1 e2 e3 e0 e1 e2 e3 e0 e1 e2 e3 e0 e1 e2 e3 e0 e1 e2 e3 e0 e1 e2 e3 e0 e1 e2 e3 e0 e1 e2 e3 e0 e1 e2 e3 e0 e1 e2 e3 e0 e1 e2 e3 e0 e1 e2 e3 e0 e1 e2 e3 e0 e1 e2 e3 e0 e1 e2 e3 e0 e1 e2 e3 e0 e1 e2 e3 e0 e1 e2 e3 e0 e1 e2 e3 e0 e1 e2 e3 e0 e1 e2 e3 e0 e1 e2 e3 e0 e1 e2 e3 e0 e1 e2 e3 e0 e1 e2 e3 e0 e1 e2 e3 e0 e1 e2 e3 e0 e1 e2 e3 e0 e1 e2 e3 e0 e1 e2 e3 e0 e1 e2 e3 e0 e1 e2 e3 e0 e1 e2 e3 e0 e1 e2 e3 e0 e1 e2 e3 e0 e1 e2 e3 e0 e1 e2 e3 e0 e1 e2 e3 e0 e1 e2 e3 e0 e1 e2 e3 e0 e1 e2 e3 e0 e1 e2 e3 e0 e1 e2 e3 e0 e1 e2 e3 e0 e1 e2 e3 e0 e1 e2 e3 e0 e1 e2 e3 e0 e1 e2 e3 e0 e1 e2 e3 e0 e1 e2 e3 e0 e1 e2 e3 e0 e1 e2 e3 e0 e1 e2 e3 e0 e1 e2 e3 e0 e1 e2 e3 e0 e1 e2 e3 e0 e1 e2 e3 e0 e1 e2 e3 e0 e1 e2 e3 e0 e1 e2 e3 e0 e1 e2 e3 e0 e1 e2 e3 e0 e1 e2 e3 e0 e1 e2 e3 e0 e1 e2 e3 e0 e1 e2 e3 e0 e1 e2 e3 e0 e1 e2 e3 e0 e1 e2 e3 e0 e1 e2 e3 e0 e1 e2 e3 e0 e1 e2 e3 e0 e1 e2 e3 e0 e1 e2 e3 e0 e1 e2 e3 e0 e1 e2 e3 e0 e1 e2 e3 e0 e1 e2 e3 e0 e1 e2 e3 e0 e1 e2 e3 e0 e1 e2 e3 e0 e1 e2 e3 e0 e1 e2 e3 e0 e1 e2 e3 e0 e1 e2 e3 e0 e1 e2 e3 e0 e1 e2 e3 e0 e1 e2 e3 e0 e1 e2 e3 e0 e1 e2 e3 e0 e1 e2 e3 e0 e1 e2 e3 e0 e1 e2 e3 e0 e1 e2 e3 e0 e1 e2 e3 e0 e1 e2 e3 e0 e1 e2 e3 e0 e1 e2 e3 e0 e1 e2 e3 e0 e1 e2 e3 e0 e1 e2 e3 e0 e1 e2 e3 e0 e1 e2 e3 e0 e1 e2 e3 e0 e1 e2 e3 e0 e1 e2 e3 e0 e1 e2 e3 e0 e1 e2 e3 e0 e1 e2 e3 e0 e1 e2 e3 e0 e1 e2 e3 e0 e1 e2 e3 e0 e1 e2 e3 e0 e1 e2 e3 e0 e1 e2 e3 e0 e1 e2 e3 e0 e1 e2 e3 e0 e1 e2 e3 e0 e1 e2 e3 e0 e1 e2 e3 e0 e1 e2 e3 e0 e1 e2 e3 e0 e1 e2 e3 e0 e1 e2 e3 e0 e1 e2 e3 e0 e1 e2 e3 e0 e1 e2 e3 e0 e1 e2 e3 e0 e1 e2 e3 e0 e1 e2 e3 e0 e1 e2 e3 e0 e1 e2 e3 e0 e1 e2 e3 e0 e1 e2 e3 e0 e1 e2 e3 e0 e1 e2 e3 e0 e1 e2 e3 e0 e1 e2 e3 e0 e1 e2 e3 e0 e1 e2 e3 e0 e1 e2 e3 e0 e1 e2 e3 e0 e1 e2 e3 e0 e1 e2 e3 e0 e1 e2 e3 e0 e1 e2 e3 e0 e1 e2 e3 e0 e1 e2 e3 e0 e1 e2 e3 e0 e1 e2 e3 e0 e1 e2 e3 e0 e1 e2 e3 e0 e1 e2 e3 e0 e1 e2 e3 e0 e1 e2 e3 e0 e1 e2 e3 e0 e1 e2 e3 e0 e1 e2 e3 e0 e1 e2 e3 e0 e1 e2 e3 e0 e1 e2 e3 e0 e1 e2 e3"/>