<edges>
    <edge id="e0" from="n0" to="n1" numLanes="2" speed="33.33"/>
    <edge id="e1" from="n1" to="n2" numLanes="2" speed="33.33"/>
    <edge id="e2" from="n2" to="n3" numLanes="2" speed="33.33"/>
    <edge id="e3" from="n3" to="n4" numLanes="2" speed="33.33"/>
    <edge id="e4" from="n4" to="n5" numLanes="2" speed="33.33"/>
    <edge id="e5" from="n5" to="n6" numLanes="2" speed="33.33"/>
    <edge id="e6" from="n6" to="n7" numLanes="2" speed="33.33"/>
    <edge id="e7" from="n7" to="n8" numLanes="2" speed="33.33"/>
    <edge id="e8" from="n8" to="n9" numLanes="2" speed="33.33"/>
    <edge id="e9" from="n9" to="n10" numLanes="2" speed="33.33"/>
    <edge id="e10" from="n10" to="n11" numLanes="2" speed="33.33"/>
    <edge id="e11" from="n11" to="n12" numLanes="2" speed="33.33"/>
    <edge id="e12" from="n12" to="n13" numLanes="2" speed="33.33"/>
    <edge id="e13" from="n13" to="n14" numLanes="2" speed="33.33"/>
    <edge id="e14" from="n14" to="n15" numLanes="2" speed="33.33"/>
    <edge id="e15" from="n15" to="n16" numLanes="1" speed="33.33"/>
    <edge id="e16" from="n16" to="n17" numLanes="1" speed="33.33"/>
    <edge id="e17" from="n17" to="n18" numLanes="2" speed="33.33"/>
    <edge id="e18" from="n18" to="n19" numLanes="2" speed="33.33"/>
    <edge id="e19" from="n19" to="n20" numLanes="2" speed="33.33"/>
    <edge id="e20" from="n20" to="n21" numLanes="2" speed="33.33"/>
    <edge id="e21" from="n21" to="n22" numLanes="2" speed="33.33"/>
    <edge id="e22" from="n22" to="n23" numLanes="2" speed="33.33"/>
    <edge id="e23" from="n23" to="n24" numLanes="2" speed="33.33"/>
    <edge id="e24" from="n24" to="n25" numLanes="2" speed="33.33"/>
    <edge id="e25" from="n25" to="n26" numLanes="2" speed="33.33"/>
    <edge id="e26" from="n26" to="n27" numLanes="2" speed="33.33"/>
    <edge id="e27" from="n27" to="n28" numLanes="2" speed="33.33"/>
    <edge id="e28" from="n28" to="n29" numLanes="2" speed="33.33"/>
    <edge id="e29" from="n29" to="n30" numLanes="2" speed="33.33"/>
    <edge id="e30" from="n30" to="n31" numLanes="2" speed="33.33"/>
    <edge id="e31" from="n31" to="n0" numLanes="2" speed="33.33"/>
</edges>