<additional>
    <e1Detector id="det0" lane="e0_0" pos="250" freq="60" file="/home/lyc/CAV_Multi-level_Penetration_Simulation/out/vehN120_p100_seed1_e1.xml"/>
</additional>
