<additional>
  <e1Detector id="det0" lane="e0_0" pos="250" freq="120" file="out/e1/_e1.xml"/>
</additional>
