<?xml version="1.0" encoding="UTF-8"?>

<!-- generated on Fri Dec 19 21:51:51 2025 by Eclipse SUMO netconvert Version 1.4.0
<configuration xmlns:xsi="http://www.w3.org/2001/XMLSchema-instance" xsi:noNamespaceSchemaLocation="http://sumo.dlr.de/xsd/netconvertConfiguration.xsd">

    <input>
        <node-files value="nodes.nod.xml"/>
        <edge-files value="edges.edg.xml"/>
    </input>

    <output>
        <output-file value="loop.net.xml"/>
    </output>

    <report>
        <aggregate-warnings value="5"/>
    </report>

</configuration>
-->

<net version="1.3" junctionCornerDetail="5" limitTurnSpeed="5.50" xmlns:xsi="http://www.w3.org/2001/XMLSchema-instance" xsi:noNamespaceSchemaLocation="http://sumo.dlr.de/xsd/net_file.xsd">

    <location netOffset="0.00,0.00" convBoundary="0.00,0.00,500.00,500.00" origBoundary="0.00,0.00,500.00,500.00" projParameter="!"/>

    <edge id=":n0_0" function="internal">
        <lane id=":n0_0_0" index="0" speed="3.90" length="2.58" shape="-1.60,0.00 -1.50,-0.70 -1.20,-1.20 -0.70,-1.50 0.00,-1.60"/>
    </edge>
    <edge id=":n1_0" function="internal">
        <lane id=":n1_0_0" index="0" speed="3.90" length="2.58" shape="500.00,-1.60 500.70,-1.50 501.20,-1.20 501.50,-0.70 501.60,0.00"/>
    </edge>
    <edge id=":n2_0" function="internal">
        <lane id=":n2_0_0" index="0" speed="3.90" length="2.58" shape="501.60,500.00 501.50,500.70 501.20,501.20 500.70,501.50 500.00,501.60"/>
    </edge>
    <edge id=":n3_0" function="internal">
        <lane id=":n3_0_0" index="0" speed="3.90" length="2.58" shape="0.00,501.60 -0.70,501.50 -1.20,501.20 -1.50,500.70 -1.60,500.00"/>
    </edge>

    <edge id="e0" from="n0" to="n1" priority="-1">
        <lane id="e0_0" index="0" speed="33.33" length="500.00" shape="0.00,-1.60 500.00,-1.60"/>
    </edge>
    <edge id="e1" from="n1" to="n2" priority="-1">
        <lane id="e1_0" index="0" speed="33.33" length="500.00" shape="501.60,0.00 501.60,500.00"/>
    </edge>
    <edge id="e2" from="n2" to="n3" priority="-1">
        <lane id="e2_0" index="0" speed="33.33" length="500.00" shape="500.00,501.60 0.00,501.60"/>
    </edge>
    <edge id="e3" from="n3" to="n0" priority="-1">
        <lane id="e3_0" index="0" speed="33.33" length="500.00" shape="-1.60,500.00 -1.60,0.00"/>
    </edge>

    <junction id="n0" type="priority" x="0.00" y="0.00" incLanes="e3_0" intLanes=":n0_0_0" shape="-3.20,0.00 0.00,0.00 0.00,-3.20 -1.78,-2.84 -2.40,-2.40 -2.84,-1.78 -3.11,-0.98">
        <request index="0" response="0" foes="0" cont="0"/>
    </junction>
    <junction id="n1" type="priority" x="500.00" y="0.00" incLanes="e0_0" intLanes=":n1_0_0" shape="500.00,0.00 503.20,0.00 502.84,-1.78 502.40,-2.40 501.78,-2.84 500.98,-3.11 500.00,-3.20">
        <request index="0" response="0" foes="0" cont="0"/>
    </junction>
    <junction id="n2" type="priority" x="500.00" y="500.00" incLanes="e1_0" intLanes=":n2_0_0" shape="503.20,500.00 500.00,500.00 500.00,503.20 501.78,502.84 502.40,502.40 502.84,501.78 503.11,500.98">
        <request index="0" response="0" foes="0" cont="0"/>
    </junction>
    <junction id="n3" type="priority" x="0.00" y="500.00" incLanes="e2_0" intLanes=":n3_0_0" shape="0.00,503.20 0.00,500.00 -3.20,500.00 -2.84,501.78 -2.40,502.40 -1.78,502.84 -0.98,503.11">
        <request index="0" response="0" foes="0" cont="0"/>
    </junction>

    <connection from="e0" to="e1" fromLane="0" toLane="0" via=":n1_0_0" dir="l" state="M"/>
    <connection from="e1" to="e2" fromLane="0" toLane="0" via=":n2_0_0" dir="l" state="M"/>
    <connection from="e2" to="e3" fromLane="0" toLane="0" via=":n3_0_0" dir="l" state="M"/>
    <connection from="e3" to="e0" fromLane="0" toLane="0" via=":n0_0_0" dir="l" state="M"/>

    <connection from=":n0_0" to="e0" fromLane="0" toLane="0" dir="l" state="M"/>
    <connection from=":n1_0" to="e1" fromLane="0" toLane="0" dir="l" state="M"/>
    <connection from=":n2_0" to="e2" fromLane="0" toLane="0" dir="l" state="M"/>
    <connection from=":n3_0" to="e3" fromLane="0" toLane="0" dir="l" state="M"/>

</net>
